6
0 1 H4O2
O                     0.017225000000     0.031664000000     0.004802000000
H                    -0.046691000000    -0.052504000000     0.962436000000
H                     0.972017000000     0.055307000000    -0.185622000000
O                     2.516175000000     0.894012000000    -1.014512000000
H                     1.942080000000     1.572902000000    -1.410984000000
H                     3.056412000000     0.561271000000    -1.739079000000
