6
0 1 H4O2
H                     0.029000000000    -1.119900000000    -1.524300000000
O                     0.948100000000    -1.399000000000    -1.358700000000
H                     1.437100000000    -0.558800000000    -1.309900000000
H                     1.008800000000    -1.524000000000     0.508600000000
O                     1.020900000000    -1.173200000000     1.427000000000
H                     1.586400000000    -0.390100000000     1.310100000000
